Version 4
SHEET 1 916 720
WIRE 352 -288 352 -304
WIRE 848 -288 352 -288
WIRE 352 -128 352 -288
WIRE 352 64 352 -48
WIRE 352 64 208 64
WIRE 496 64 352 64
WIRE -64 112 -304 112
WIRE 80 112 80 96
WIRE 80 112 16 112
WIRE 144 112 80 112
WIRE 352 112 352 64
WIRE 288 160 208 160
WIRE 848 176 848 -288
WIRE -304 192 -304 112
WIRE 352 224 352 208
WIRE 496 224 496 208
WIRE 496 224 352 224
WIRE 496 256 496 224
WIRE -304 336 -304 272
WIRE 352 384 352 224
WIRE 496 384 496 320
WIRE -304 544 -304 416
WIRE 352 544 352 464
WIRE 352 544 -304 544
WIRE 496 544 496 464
WIRE 496 544 352 544
WIRE 848 544 848 256
WIRE 848 544 496 544
WIRE 352 624 352 544
FLAG 352 624 0
FLAG 496 64 out
FLAG 352 -304 Vcc
FLAG 496 208 Ve
FLAG 80 96 Vb
SYMBOL npn 144 64 R0
SYMATTR InstName Q1
SYMATTR Value BC337-25
SYMBOL npn 288 112 R0
SYMATTR InstName Q2
SYMATTR Value BC337-25
SYMBOL res 336 -144 R0
SYMATTR InstName Rc
SYMATTR Value 6800
SYMBOL res 336 368 R0
SYMATTR InstName RE1
SYMATTR Value 2200
SYMBOL res 480 368 R0
SYMATTR InstName RE2
SYMATTR Value 560
SYMBOL cap 480 256 R0
SYMATTR InstName C1
SYMATTR Value 4.7µ
SYMBOL res 32 96 R90
WINDOW 0 0 56 VBottom 2
WINDOW 3 32 56 VTop 2
SYMATTR InstName Rsource
SYMATTR Value 50
SYMBOL voltage -304 320 R0
WINDOW 123 0 0 Left 0
WINDOW 39 0 0 Left 0
SYMATTR InstName V1
SYMATTR Value 3.4
SYMBOL voltage -304 176 R0
WINDOW 3 24 152 Left 2
WINDOW 123 24 124 Left 2
WINDOW 39 0 0 Left 0
SYMATTR InstName V2
SYMATTR Value SINE()
SYMATTR Value2 AC 1
SYMBOL voltage 848 160 R0
WINDOW 123 0 0 Left 0
WINDOW 39 0 0 Left 0
SYMATTR InstName Vcc
SYMATTR Value 15
TEXT -240 672 Left 2 !;op dec 10 100 10000000
TEXT -232 704 Left 2 !.ac dec 10 100 10000000
