Version 4
SHEET 1 1748 1120
WIRE 240 16 -112 16
WIRE 608 16 240 16
WIRE 1024 16 608 16
WIRE 1248 16 1024 16
WIRE 1392 16 1248 16
WIRE 1616 16 1392 16
WIRE 240 64 240 16
WIRE 608 64 608 16
WIRE 432 112 304 112
WIRE 544 112 432 112
WIRE 1616 176 1616 16
WIRE 1024 240 1024 16
WIRE 240 288 240 160
WIRE 288 288 240 288
WIRE 432 288 432 112
WIRE 432 288 288 288
WIRE 608 288 608 160
WIRE 768 288 608 288
WIRE 960 288 768 288
WIRE -16 304 -16 256
WIRE 1248 352 1248 16
WIRE 240 384 240 288
WIRE 608 384 608 288
WIRE 1024 400 1024 336
WIRE 1104 400 1024 400
WIRE 1184 400 1104 400
WIRE -16 432 -16 384
WIRE 112 432 112 384
WIRE 112 432 -16 432
WIRE 176 432 112 432
WIRE 736 432 736 368
WIRE 736 432 672 432
WIRE 1616 448 1616 256
WIRE 1728 448 1616 448
WIRE 1024 480 1024 400
WIRE -16 496 -16 432
WIRE 1728 512 1728 448
WIRE 736 528 736 432
WIRE 240 544 240 480
WIRE 432 544 240 544
WIRE 608 544 608 480
WIRE 608 544 432 544
WIRE 1248 576 1248 448
WIRE 1392 576 1248 576
WIRE -16 608 -16 560
WIRE -112 656 -112 16
WIRE 736 656 736 608
WIRE 1024 672 1024 544
WIRE 1616 688 1616 448
WIRE 1248 784 1248 576
WIRE 1024 832 1024 736
WIRE 1088 832 1024 832
WIRE 1184 832 1088 832
WIRE -112 848 -112 736
WIRE -112 848 -224 848
WIRE 64 848 -112 848
WIRE -112 928 -112 848
WIRE 432 928 432 544
WIRE 432 928 240 928
WIRE 624 928 432 928
WIRE 1024 928 1024 832
WIRE -224 976 -224 848
WIRE -176 976 -224 976
WIRE 64 976 64 848
WIRE 176 976 64 976
WIRE 688 976 176 976
WIRE 912 976 688 976
WIRE 960 976 912 976
WIRE -112 1056 -112 1024
WIRE 240 1056 240 1024
WIRE 240 1056 -112 1056
WIRE 624 1056 624 1024
WIRE 624 1056 240 1056
WIRE 1024 1056 1024 1024
WIRE 1024 1056 624 1056
WIRE 1248 1056 1248 880
WIRE 1248 1056 1024 1056
WIRE 1440 1056 1248 1056
WIRE 1616 1056 1616 768
WIRE 1616 1056 1440 1056
FLAG 1392 576 Vo
FLAG 1104 400 vo3
FLAG 1088 832 v00c
FLAG 912 976 vpo
FLAG 1440 1056 -VCC
FLAG 1392 16 Vcc
FLAG 112 384 Vb-
FLAG 736 368 Vb+
FLAG -16 256 Vo
FLAG 736 656 0
FLAG 1728 512 0
FLAG 768 288 Vo1
FLAG 288 288 Vo2
FLAG -16 608 0
FLAG 432 544 Vs
SYMBOL pnp 304 160 R180
SYMATTR InstName Q1
SYMATTR Value BC327-25
SYMBOL pnp 544 160 M180
SYMATTR InstName Q2
SYMATTR Value BC327-25
SYMBOL pnp 960 336 M180
SYMATTR InstName Q3
SYMATTR Value BC327-25
SYMBOL pnp 1184 880 M180
SYMATTR InstName Q4
SYMATTR Value BC327-25
SYMBOL npn 176 384 R0
SYMATTR InstName Q5
SYMATTR Value BC337-25
SYMBOL npn 672 384 M0
SYMATTR InstName Q6
SYMATTR Value BC337-25
SYMBOL npn 1184 352 R0
SYMATTR InstName Q9
SYMATTR Value BC337-25
SYMBOL npn 960 928 R0
SYMATTR InstName Q10
SYMATTR Value BC337-25
SYMBOL npn 688 928 M0
SYMATTR InstName Q11
SYMATTR Value BC337-25
SYMBOL npn 176 928 R0
SYMATTR InstName Q12
SYMATTR Value BC337-25
SYMBOL npn -176 928 R0
SYMATTR InstName Q13
SYMATTR Value BC337-25
SYMBOL diode 1008 480 R0
SYMATTR InstName D1
SYMBOL diode 1008 672 R0
SYMATTR InstName D2
SYMBOL current -112 656 R0
WINDOW 123 0 0 Left 0
WINDOW 39 0 0 Left 0
SYMATTR InstName I1
SYMATTR Value 0.25m
SYMBOL voltage 1616 160 R0
WINDOW 123 0 0 Left 0
WINDOW 39 0 0 Left 0
SYMATTR InstName V1
SYMATTR Value 5
SYMBOL voltage 1616 672 R0
WINDOW 123 0 0 Left 0
WINDOW 39 0 0 Left 0
SYMATTR InstName V2
SYMATTR Value 5
SYMBOL voltage 736 512 R0
WINDOW 123 24 124 Left 2
WINDOW 39 0 0 Left 0
SYMATTR Value2 AC 1
SYMATTR InstName V3
SYMATTR Value ""
SYMBOL ind -32 288 R0
SYMATTR InstName L1
SYMATTR Value 1000000
SYMBOL cap -32 496 R0
SYMATTR InstName C1
SYMATTR Value 1000000
TEXT -224 1104 Left 2 !.op
