Version 4
SHEET 1 880 680
WIRE 320 16 128 16
WIRE 800 16 320 16
WIRE 128 32 128 16
WIRE 320 32 320 16
WIRE 320 128 320 112
WIRE 496 128 320 128
WIRE 640 128 640 112
WIRE 640 128 560 128
WIRE 320 160 320 128
WIRE -80 208 -160 208
WIRE 128 208 128 112
WIRE 128 208 -16 208
WIRE 256 208 128 208
WIRE 800 224 800 16
WIRE -160 256 -160 208
WIRE 128 272 128 208
WIRE 320 272 320 256
WIRE 416 272 320 272
WIRE -160 384 -160 336
WIRE 128 384 128 352
WIRE 128 384 -160 384
WIRE 320 384 320 352
WIRE 320 384 128 384
WIRE 416 384 416 336
WIRE 416 384 320 384
WIRE 800 384 800 304
WIRE 800 384 416 384
WIRE -160 464 -160 384
FLAG -160 464 0
FLAG 640 112 out
FLAG -160 208 in
SYMBOL res 112 16 R0
SYMATTR InstName R1
SYMATTR Value 68000
SYMBOL res 112 256 R0
SYMATTR InstName R2
SYMATTR Value 27000
SYMBOL res 304 16 R0
SYMATTR InstName R3
SYMATTR Value 3900
SYMBOL res 304 256 R0
SYMATTR InstName R4
SYMATTR Value 2200
SYMBOL cap -16 192 R90
WINDOW 0 0 32 VBottom 2
WINDOW 3 32 32 VTop 2
SYMATTR InstName C1
SYMATTR Value 1µ
SYMBOL cap 400 272 R0
SYMATTR InstName C2
SYMATTR Value 47µ
SYMBOL cap 560 112 R90
WINDOW 0 0 32 VBottom 2
WINDOW 3 32 32 VTop 2
SYMATTR InstName C3
SYMATTR Value 1µ
SYMBOL npn 256 160 R0
SYMATTR InstName Q1
SYMATTR Value BC337-25
SYMBOL voltage 800 208 R0
WINDOW 123 0 0 Left 0
WINDOW 39 0 0 Left 0
SYMATTR InstName V1
SYMATTR Value 10
SYMBOL current -160 256 R0
WINDOW 123 0 0 Left 0
WINDOW 39 0 0 Left 0
SYMATTR InstName I1
SYMATTR Value SINE(0 10m 1k)
TEXT 144 464 Left 2 !.op
